<routes>
<routeDistribution id="routedist1">
        <route edges="98.0.00 -97.0.00 -96.0.00 -90.0.00 -89.0.00 113.0.00 -112.0.00 66.0.00 115.0.00 -116.0.00 16.0.00 -187.0.00 -115.0.00 -66.0.00 112.0.00 -113.0.00 89.0.00 90.0.00 96.0.00 97.0.00 100.0.00 -101.0.00"/>
        <route edges="188.0.00 113.0.00 -112.0.00 108.0.00 -109.0.00 42.0.00 105.0.00 -107.0.00 -59.0.00 39.0.00 49.0.00 -50.0.00 -45.0.00 -180.0.00"/>
        <route edges="12.0.00 52.0.00 53.0.00 -54.0.00"/>
        <route edges="65.0.00 115.0.00 -114.0.00 -13.0.00"/>
        <route edges="18.0.00 108.0.00 -109.0.00 68.0.00 78.0.00 -79.0.00"/>
        <route edges="150.0.00 -151.0.00 186.0.00 26.0.00 -185.0.00 -25.0.00 -21.0.00 58.0.00 118.0.00 -169.0.00 -119.0.00 60.0.00 -59.0.00 39.0.00 49.0.00 -50.0.00 -45.0.00 -180.0.00"/>
        <route edges="24.0.00 163.0.00 -162.0.00 61.0.00 124.0.00 -123.0.00 132.0.00 -173.0.00 95.0.00 -93.0.00 -92.0.00 96.0.00 110.0.00 -108.0.00 66.0.00 -65.0.00"/>
        <route edges="18.0.00 108.0.00 -110.0.00 -96.0.00 92.0.00 -91.0.00 -67.0.00"/>
        <route edges="74.0.00 75.0.00 -76.0.00 -71.0.00 91.0.00 -92.0.00 -90.0.00 -89.0.00 113.0.00 -112.0.00 108.0.00 -110.0.00 -96.0.00 92.0.00 93.0.00 -95.0.00 173.0.00 -132.0.00 123.0.00 125.0.00 129.0.00 136.0.00 -137.0.00 62.0.00 -63.0.00 14.0.00 20.0.00 -21.0.00 133.0.00 -134.0.00"/>
        <route edges="80.0.00 -82.0.00"/>
        <route edges="67.0.00 91.0.00 -92.0.00 96.0.00 97.0.00 100.0.00 -101.0.00"/>
        <route edges="98.0.00 -97.0.00 -96.0.00 -90.0.00 -89.0.00 113.0.00 -112.0.00 108.0.00 -109.0.00 42.0.00 -43.0.00 -41.0.00"/>
        <route edges="102.0.00 -103.0.00 95.0.00 -93.0.00 -92.0.00 -90.0.00 -89.0.00 113.0.00 -112.0.00 108.0.00 -110.0.00 -96.0.00 92.0.00 -91.0.00 71.0.00 -70.0.00"/>
        <route edges="69.0.00 78.0.00 -77.0.00 128.0.00 -127.0.00 -125.0.00 -123.0.00 132.0.00 -173.0.00 95.0.00 -93.0.00 -92.0.00 -90.0.00 -89.0.00 113.0.00 -112.0.00 108.0.00 -110.0.00 -96.0.00 92.0.00 -91.0.00 71.0.00 76.0.00 -75.0.00 -73.0.00 81.0.00 -82.0.00"/>
        <route edges="188.0.00 89.0.00 90.0.00 92.0.00 93.0.00 -95.0.00 103.0.00 -102.0.00"/>
        <route edges="117.0.00 -118.0.00 120.0.00 -119.0.00 60.0.00 107.0.00 -105.0.00 -43.0.00 -41.0.00"/>
        <route edges="99.0.00 -100.0.00 -97.0.00 -96.0.00 -90.0.00 -89.0.00 113.0.00 -112.0.00 108.0.00 -109.0.00 42.0.00 -43.0.00 -41.0.00"/>
        <route edges="180.0.00 45.0.00 50.0.00 -49.0.00 -39.0.00 59.0.00 107.0.00 -105.0.00 -42.0.00 109.0.00 -110.0.00 -96.0.00 92.0.00 -91.0.00 71.0.00 76.0.00 -75.0.00 -73.0.00 81.0.00 -80.0.00"/>
        <route edges="180.0.00 45.0.00 50.0.00 -49.0.00 -39.0.00 59.0.00 -60.0.00 -175.0.00 137.0.00 -136.0.00 -129.0.00 -125.0.00 -123.0.00 132.0.00 -173.0.00 95.0.00 -93.0.00 -92.0.00 96.0.00 97.0.00 -98.0.00"/>
        <route edges="74.0.00 75.0.00 -76.0.00 -71.0.00 91.0.00 -92.0.00 -90.0.00 -89.0.00 113.0.00 -112.0.00 108.0.00 -110.0.00 -96.0.00 92.0.00 93.0.00 -95.0.00 173.0.00 -132.0.00 123.0.00 125.0.00 127.0.00 -128.0.00 -15.0.00"/>
        <route edges="99.0.00 -101.0.00"/>
        <route edges="85.0.00 -86.0.00 -84.0.00"/>
        <route edges="101.0.00 -100.0.00 -97.0.00 -96.0.00 92.0.00 93.0.00 -95.0.00 173.0.00 -132.0.00 123.0.00 125.0.00 127.0.00 -128.0.00 -15.0.00"/>
        <route edges="117.0.00 -118.0.00 -58.0.00 21.0.00 -20.0.00 22.0.00 23.0.00 154.0.00 -152.0.00 19.0.00 156.0.00 -155.0.00 159.0.00 -158.0.00 162.0.00 -163.0.00 -24.0.00"/>
        <route edges="117.0.00 -118.0.00 -58.0.00 21.0.00 -20.0.00 -14.0.00 63.0.00 -62.0.00 137.0.00 -136.0.00 -129.0.00 -126.0.00 -104.0.00"/>
        <route edges="72.0.00 73.0.00 75.0.00 -76.0.00 -71.0.00 91.0.00 -92.0.00 -90.0.00 -89.0.00 113.0.00 -112.0.00 108.0.00 -110.0.00 -96.0.00 92.0.00 93.0.00 -95.0.00 173.0.00 -132.0.00 123.0.00 125.0.00 129.0.00 136.0.00 -137.0.00 62.0.00 -63.0.00 14.0.00 20.0.00 -21.0.00 58.0.00 118.0.00 -117.0.00"/>
        <route edges="134.0.00 -133.0.00 21.0.00 -20.0.00 -14.0.00 63.0.00 -62.0.00 137.0.00 -136.0.00 -129.0.00 -125.0.00 -123.0.00 132.0.00 -173.0.00 95.0.00 -93.0.00 -92.0.00 -90.0.00 -89.0.00 113.0.00 -112.0.00 108.0.00 -110.0.00 -96.0.00 92.0.00 -91.0.00 71.0.00 -70.0.00"/>
        <route edges="82.0.00 -81.0.00 73.0.00 75.0.00 -76.0.00 -71.0.00 91.0.00 -92.0.00 96.0.00 97.0.00 -98.0.00"/>
        <route edges="131.0.00 -132.0.00 123.0.00 125.0.00 129.0.00 136.0.00 -137.0.00 175.0.00 60.0.00 107.0.00 -106.0.00 -47.0.00"/>
        <route edges="131.0.00 -173.0.00 95.0.00 -93.0.00 -92.0.00 96.0.00 97.0.00 -98.0.00"/>
        <route edges="41.0.00 43.0.00 -42.0.00 109.0.00 -108.0.00 112.0.00 -111.0.00 -189.0.00 16.0.00 -17.0.00 -13.0.00"/>
        <route edges="80.0.00 -81.0.00 73.0.00 75.0.00 -76.0.00 -71.0.00 91.0.00 -92.0.00 -90.0.00 -89.0.00 113.0.00 -112.0.00 108.0.00 -110.0.00 -96.0.00 92.0.00 93.0.00 -95.0.00 173.0.00 -132.0.00 123.0.00 125.0.00 129.0.00 136.0.00 -137.0.00 62.0.00 -63.0.00 14.0.00 20.0.00 -21.0.00 58.0.00 118.0.00 -117.0.00"/>
        <route edges="88.0.00 90.0.00 92.0.00 -91.0.00 71.0.00 76.0.00 -75.0.00 -74.0.00"/>
        <route edges="104.0.00 172.0.00 132.0.00 -173.0.00 95.0.00 -93.0.00 -92.0.00 96.0.00 97.0.00 100.0.00 -101.0.00"/>
        <route edges="88.0.00 90.0.00 92.0.00 93.0.00 -95.0.00 173.0.00 -131.0.00"/>
        <route edges="69.0.00 78.0.00 -77.0.00 128.0.00 -127.0.00 -125.0.00 -123.0.00 132.0.00 -173.0.00 95.0.00 -93.0.00 -92.0.00 96.0.00 110.0.00 -108.0.00 66.0.00 -65.0.00"/>
        <route edges="70.0.00 -71.0.00 91.0.00 -92.0.00 96.0.00 97.0.00 100.0.00 -101.0.00"/>
        <route edges="180.0.00 45.0.00 50.0.00 -49.0.00 -39.0.00 59.0.00 107.0.00 -105.0.00 -42.0.00 68.0.00 78.0.00 -79.0.00"/>
        <route edges="74.0.00 75.0.00 -76.0.00 -71.0.00 91.0.00 -92.0.00 -90.0.00 -89.0.00 113.0.00 -112.0.00 108.0.00 -110.0.00 -96.0.00 92.0.00 93.0.00 -95.0.00 173.0.00 -131.0.00"/>
        <route edges="69.0.00 78.0.00 -77.0.00 128.0.00 130.0.00 136.0.00 -137.0.00 175.0.00 60.0.00 -59.0.00 55.0.00 177.0.00 178.0.00 -57.0.00"/>
        <route edges="131.0.00 -173.0.00 103.0.00 -102.0.00"/>
        <route edges="74.0.00 75.0.00 -76.0.00 -71.0.00 91.0.00 -92.0.00 -90.0.00 -89.0.00 -188.0.00"/>
        <route edges="102.0.00 -103.0.00 95.0.00 -93.0.00 -92.0.00 96.0.00 97.0.00 -98.0.00"/>
        <route edges="15.0.00 128.0.00 130.0.00 136.0.00 -137.0.00 175.0.00 60.0.00 -59.0.00 39.0.00 49.0.00 -50.0.00 -45.0.00 -180.0.00"/>
        <route edges="13.0.00 17.0.00 -16.0.00 189.0.00 111.0.00 -112.0.00 108.0.00 -110.0.00 -96.0.00 92.0.00 93.0.00 -95.0.00 173.0.00 -132.0.00 123.0.00 125.0.00 129.0.00 136.0.00 -137.0.00 62.0.00 -63.0.00 14.0.00 20.0.00 -21.0.00 133.0.00 -134.0.00"/>
        <route edges="12.0.00 52.0.00 -51.0.00"/>
        <route edges="18.0.00 108.0.00 -110.0.00 -96.0.00 92.0.00 93.0.00 -95.0.00 173.0.00 -132.0.00 123.0.00 -124.0.00 -61.0.00 162.0.00 -163.0.00 -24.0.00"/>
        <route edges="79.0.00 -78.0.00 -68.0.00 109.0.00 -108.0.00 112.0.00 -113.0.00 89.0.00 90.0.00 96.0.00 97.0.00 -98.0.00"/>
        <route edges="98.0.00 -97.0.00 -96.0.00 92.0.00 -91.0.00 -67.0.00"/>
        <route edges="104.0.00 172.0.00 132.0.00 -173.0.00 95.0.00 -93.0.00 -92.0.00 -90.0.00 -89.0.00 113.0.00 -112.0.00 108.0.00 -110.0.00 -96.0.00 92.0.00 -91.0.00 71.0.00 -70.0.00"/>
        <route edges="-190.0.00 -189.0.00 16.0.00 -187.0.00 -116.0.00 189.0.00 111.0.00 -112.0.00 108.0.00 -110.0.00 -96.0.00 92.0.00 -91.0.00 71.0.00 76.0.00 -75.0.00 -73.0.00 81.0.00 -82.0.00"/>
        <route edges="72.0.00 73.0.00 75.0.00 -76.0.00 -71.0.00 91.0.00 -92.0.00 -90.0.00 -88.0.00"/>
        <route edges="104.0.00 172.0.00 132.0.00 -173.0.00 95.0.00 -93.0.00 -92.0.00 -90.0.00 -89.0.00 113.0.00 -112.0.00 108.0.00 -110.0.00 -96.0.00 92.0.00 -91.0.00 71.0.00 76.0.00 -75.0.00 -73.0.00 81.0.00 -82.0.00"/>
        <route edges="104.0.00 126.0.00 127.0.00 130.0.00 -129.0.00 -126.0.00 -104.0.00"/>
        <route edges="18.0.00 108.0.00 -110.0.00 -96.0.00 92.0.00 93.0.00 -95.0.00 173.0.00 -132.0.00 123.0.00 -124.0.00 -61.0.00 158.0.00 -159.0.00 155.0.00 -156.0.00 -19.0.00 152.0.00 -154.0.00 -23.0.00 138.0.00 -139.0.00 -26.0.00 -186.0.00 151.0.00 -150.0.00"/>
        <route edges="47.0.00 106.0.00 -105.0.00 -42.0.00 109.0.00 -110.0.00 -96.0.00 92.0.00 -91.0.00 71.0.00 76.0.00 -75.0.00 -73.0.00 -72.0.00"/>
        <route edges="150.0.00 -151.0.00 186.0.00 26.0.00 139.0.00 140.0.00 183.0.00 -27.0.00 154.0.00 -152.0.00 19.0.00 156.0.00 -155.0.00 159.0.00 -158.0.00 61.0.00 124.0.00 -123.0.00 132.0.00 -173.0.00 95.0.00 -93.0.00 -92.0.00 96.0.00 110.0.00 -108.0.00 112.0.00 -111.0.00 -189.0.00 16.0.00 -17.0.00 -13.0.00"/>
        <route edges="94.0.00 -93.0.00 -92.0.00 -90.0.00 -89.0.00 113.0.00 -112.0.00 108.0.00 -110.0.00 -96.0.00 92.0.00 -91.0.00 71.0.00 76.0.00 -75.0.00 -73.0.00 -72.0.00"/>
        <route edges="99.0.00 -100.0.00 -97.0.00 -96.0.00 92.0.00 93.0.00 -95.0.00 173.0.00 -132.0.00 123.0.00 125.0.00 129.0.00 136.0.00 -137.0.00 62.0.00 -63.0.00 14.0.00 20.0.00 -21.0.00 58.0.00 118.0.00 -117.0.00"/>
        <route edges="74.0.00 75.0.00 -76.0.00 -71.0.00 91.0.00 -92.0.00 -90.0.00 -89.0.00 113.0.00 -112.0.00 108.0.00 -110.0.00 -96.0.00 92.0.00 -91.0.00 71.0.00 -70.0.00"/>
        <route edges="41.0.00 43.0.00 105.0.00 -107.0.00 -60.0.00 119.0.00 -120.0.00 118.0.00 -117.0.00"/>
        <route edges="41.0.00 43.0.00 -42.0.00 109.0.00 -110.0.00 -96.0.00 -90.0.00 -88.0.00"/>
        <route edges="70.0.00 -71.0.00 91.0.00 -92.0.00 -90.0.00 -89.0.00 113.0.00 -112.0.00 108.0.00 -110.0.00 -96.0.00 92.0.00 -91.0.00 71.0.00 -70.0.00"/>
        <route edges="47.0.00 106.0.00 -107.0.00 -60.0.00 -175.0.00 137.0.00 -136.0.00 -130.0.00 -128.0.00 -15.0.00"/>
        <route edges="98.0.00 -97.0.00 -96.0.00 92.0.00 -91.0.00 71.0.00 76.0.00 -75.0.00 -73.0.00 -72.0.00"/>
        <route edges="13.0.00 17.0.00 -16.0.00 189.0.00 111.0.00 -112.0.00 108.0.00 -110.0.00 -96.0.00 92.0.00 -91.0.00 71.0.00 76.0.00 -75.0.00 -73.0.00 81.0.00 -82.0.00"/>
        <route edges="94.0.00 -95.0.00 173.0.00 -132.0.00 123.0.00 125.0.00 127.0.00 -128.0.00 -15.0.00"/>
        <route edges="79.0.00 -78.0.00 -68.0.00 109.0.00 -110.0.00 -96.0.00 92.0.00 -91.0.00 -67.0.00"/>
        <route edges="67.0.00 91.0.00 -92.0.00 96.0.00 97.0.00 -98.0.00"/>
        <route edges="-190.0.00 -189.0.00 16.0.00 -187.0.00 -115.0.00 -66.0.00 112.0.00 -113.0.00 -188.0.00"/>
        <route edges="57.0.00 -178.0.00 -177.0.00 -56.0.00 -50.0.00 -44.0.00 48.0.00 -47.0.00"/>
        <route edges="15.0.00 128.0.00 -127.0.00 -126.0.00 -104.0.00"/>
        <route edges="99.0.00 -100.0.00 -97.0.00 -96.0.00 92.0.00 93.0.00 -95.0.00 173.0.00 -132.0.00 123.0.00 125.0.00 129.0.00 136.0.00 -137.0.00 62.0.00 -63.0.00 14.0.00 20.0.00 -21.0.00 133.0.00 -134.0.00"/>
        <route edges="99.0.00 -100.0.00 -97.0.00 -96.0.00 -90.0.00 -89.0.00 113.0.00 -112.0.00 108.0.00 -109.0.00 42.0.00 105.0.00 -106.0.00 -47.0.00"/>
        <route edges="104.0.00 172.0.00 132.0.00 -173.0.00 103.0.00 -102.0.00"/>
        <route edges="41.0.00 43.0.00 -42.0.00 109.0.00 -108.0.00 66.0.00 -65.0.00"/>
        <route edges="24.0.00 163.0.00 -162.0.00 61.0.00 124.0.00 -123.0.00 132.0.00 -173.0.00 95.0.00 -93.0.00 -92.0.00 96.0.00 110.0.00 -108.0.00 -18.0.00"/>
        <route edges="117.0.00 -118.0.00 -58.0.00 21.0.00 -20.0.00 -14.0.00 63.0.00 -62.0.00 137.0.00 -136.0.00 -129.0.00 -125.0.00 -123.0.00 132.0.00 -173.0.00 95.0.00 -93.0.00 -92.0.00 -90.0.00 -89.0.00 113.0.00 -112.0.00 108.0.00 -110.0.00 -96.0.00 92.0.00 -91.0.00 71.0.00 76.0.00 -75.0.00 -73.0.00 81.0.00 -80.0.00"/>
        <route edges="88.0.00 90.0.00 96.0.00 97.0.00 100.0.00 -99.0.00"/>
        <route edges="134.0.00 -133.0.00 21.0.00 -20.0.00 -14.0.00 63.0.00 -62.0.00 137.0.00 -136.0.00 -129.0.00 -125.0.00 -123.0.00 132.0.00 -173.0.00 95.0.00 -93.0.00 -92.0.00 96.0.00 110.0.00 -108.0.00 112.0.00 -111.0.00 -189.0.00 16.0.00 -187.0.00 -116.0.00 189.0.00 190.0.00"/>
        <route edges="13.0.00 17.0.00 -16.0.00 189.0.00 111.0.00 -112.0.00 108.0.00 -109.0.00 42.0.00 105.0.00 -107.0.00 -59.0.00 39.0.00 49.0.00 -50.0.00 -45.0.00 -180.0.00"/>
        <route edges="69.0.00 78.0.00 -79.0.00"/>
        <route edges="150.0.00 -151.0.00 186.0.00 26.0.00 139.0.00 140.0.00 183.0.00 -27.0.00 154.0.00 -152.0.00 19.0.00 156.0.00 -155.0.00 159.0.00 -158.0.00 61.0.00 124.0.00 -123.0.00 132.0.00 -173.0.00 95.0.00 -93.0.00 -92.0.00 96.0.00 110.0.00 -108.0.00 112.0.00 -111.0.00 -189.0.00 16.0.00 -187.0.00 -116.0.00 189.0.00 190.0.00"/>
        <route edges="74.0.00 75.0.00 83.0.00 86.0.00 -85.0.00"/>
        <route edges="98.0.00 -97.0.00 -96.0.00 -90.0.00 -89.0.00 -188.0.00"/>
        <route edges="80.0.00 -81.0.00 73.0.00 75.0.00 -76.0.00 -71.0.00 91.0.00 -92.0.00 96.0.00 110.0.00 -108.0.00 66.0.00 -65.0.00"/>
        <route edges="131.0.00 -132.0.00 123.0.00 125.0.00 129.0.00 136.0.00 -137.0.00 175.0.00 60.0.00 -59.0.00 39.0.00 49.0.00 -50.0.00 -45.0.00 -180.0.00"/>
        <route edges="24.0.00 163.0.00 -162.0.00 61.0.00 124.0.00 -123.0.00 132.0.00 -173.0.00 95.0.00 -93.0.00 -92.0.00 -90.0.00 -88.0.00"/>
        <route edges="54.0.00 -53.0.00 -52.0.00 -12.0.00"/>
        <route edges="134.0.00 -133.0.00 21.0.00 -20.0.00 -14.0.00 63.0.00 -62.0.00 137.0.00 -136.0.00 -129.0.00 -125.0.00 -123.0.00 132.0.00 -173.0.00 95.0.00 -93.0.00 -92.0.00 -90.0.00 -89.0.00 -188.0.00"/>
        <route edges="94.0.00 -93.0.00 -92.0.00 96.0.00 110.0.00 -108.0.00 66.0.00 -65.0.00"/>
        <route edges="51.0.00 53.0.00 -54.0.00"/>
        <route edges="18.0.00 108.0.00 -109.0.00 42.0.00 105.0.00 -107.0.00 -59.0.00 39.0.00 49.0.00 -50.0.00 -45.0.00 -180.0.00"/>
        <route edges="65.0.00 -66.0.00 112.0.00 -113.0.00 -188.0.00"/>
        <route edges="102.0.00 161.0.00 -162.0.00 158.0.00 -159.0.00 31.0.00 160.0.00 -158.0.00 162.0.00 -161.0.00 -102.0.00"/>
        <route edges="24.0.00 163.0.00 -162.0.00 61.0.00 124.0.00 -123.0.00 132.0.00 -173.0.00 95.0.00 -93.0.00 -92.0.00 96.0.00 110.0.00 -108.0.00 112.0.00 -111.0.00 -189.0.00 16.0.00 -17.0.00 -13.0.00"/>
        <route edges="180.0.00 -38.0.00"/>
        <route edges="72.0.00 73.0.00 75.0.00 -76.0.00 -71.0.00 91.0.00 -92.0.00 -90.0.00 -89.0.00 113.0.00 -112.0.00 108.0.00 -110.0.00 -96.0.00 92.0.00 -91.0.00 71.0.00 76.0.00 -75.0.00 -73.0.00 81.0.00 -80.0.00"/>
        <route edges="134.0.00 -133.0.00 21.0.00 -20.0.00 -14.0.00 63.0.00 -62.0.00 137.0.00 -136.0.00 -129.0.00 -125.0.00 -123.0.00 132.0.00 -173.0.00 95.0.00 -93.0.00 -92.0.00 96.0.00 110.0.00 -108.0.00 66.0.00 -65.0.00"/>
        <route edges="69.0.00 78.0.00 -77.0.00 128.0.00 -127.0.00 -125.0.00 -123.0.00 132.0.00 -173.0.00 95.0.00 -93.0.00 -92.0.00 -90.0.00 -89.0.00 113.0.00 -112.0.00 108.0.00 -110.0.00 -96.0.00 92.0.00 -91.0.00 71.0.00 76.0.00 -75.0.00 -73.0.00 -72.0.00"/>
        <route edges="80.0.00 -81.0.00 73.0.00 75.0.00 -76.0.00 -71.0.00 91.0.00 -92.0.00 -90.0.00 -89.0.00 113.0.00 -112.0.00 108.0.00 -110.0.00 -96.0.00 92.0.00 -91.0.00 71.0.00 76.0.00 -75.0.00 -73.0.00 -72.0.00"/>
        <route edges="94.0.00 -95.0.00 173.0.00 -132.0.00 123.0.00 -124.0.00 -61.0.00 162.0.00 -163.0.00 -24.0.00"/>
        <route edges="24.0.00 163.0.00 -162.0.00 158.0.00 -159.0.00 155.0.00 -156.0.00 -19.0.00 152.0.00 -154.0.00 -23.0.00 -22.0.00 20.0.00 -21.0.00 133.0.00 -134.0.00"/>
        <route edges="102.0.00 161.0.00 -162.0.00 61.0.00 124.0.00 125.0.00 127.0.00 -128.0.00 -15.0.00"/>
        <route edges="98.0.00 -97.0.00 -96.0.00 92.0.00 93.0.00 -95.0.00 103.0.00 -102.0.00"/>
        <route edges="88.0.00 90.0.00 96.0.00 110.0.00 -109.0.00 68.0.00 78.0.00 -79.0.00"/>
        <route edges="101.0.00 -100.0.00 -97.0.00 -96.0.00 92.0.00 93.0.00 -95.0.00 173.0.00 -132.0.00 123.0.00 -124.0.00 -61.0.00 158.0.00 -159.0.00 155.0.00 -156.0.00 -19.0.00 152.0.00 -154.0.00 -23.0.00 138.0.00 -139.0.00 -26.0.00 -186.0.00 151.0.00 -150.0.00"/>
        <route edges="94.0.00 -95.0.00 173.0.00 -132.0.00 123.0.00 125.0.00 127.0.00 -128.0.00 77.0.00 -78.0.00 -69.0.00"/>
        <route edges="117.0.00 -118.0.00 -58.0.00 21.0.00 25.0.00 185.0.00 -26.0.00 -186.0.00 151.0.00 -150.0.00"/>
        <route edges="65.0.00 -66.0.00 108.0.00 -110.0.00 -96.0.00 92.0.00 -91.0.00 71.0.00 76.0.00 -75.0.00 -73.0.00 81.0.00 -82.0.00"/>
        <route edges="13.0.00 114.0.00 -115.0.00 -66.0.00 112.0.00 -113.0.00 89.0.00 90.0.00 96.0.00 97.0.00 100.0.00 -99.0.00"/>
        <route edges="79.0.00 -78.0.00 -68.0.00 42.0.00 105.0.00 -107.0.00 -60.0.00 119.0.00 169.0.00 -118.0.00 -58.0.00 133.0.00 -134.0.00"/>
        <route edges="41.0.00 43.0.00 -42.0.00 68.0.00 78.0.00 -77.0.00 128.0.00 -127.0.00 -125.0.00 -124.0.00 -61.0.00 162.0.00 -161.0.00 -102.0.00"/>
        <route edges="70.0.00 -71.0.00 91.0.00 -92.0.00 -90.0.00 -89.0.00 113.0.00 -112.0.00 108.0.00 -110.0.00 -96.0.00 92.0.00 93.0.00 -95.0.00 173.0.00 -132.0.00 123.0.00 125.0.00 127.0.00 -128.0.00 77.0.00 -78.0.00 -69.0.00"/>
        <route edges="57.0.00 -178.0.00 -177.0.00 -55.0.00 59.0.00 -60.0.00 -175.0.00 137.0.00 -136.0.00 -130.0.00 -128.0.00 -15.0.00"/>
        <route edges="74.0.00 75.0.00 -76.0.00 -71.0.00 91.0.00 -92.0.00 96.0.00 97.0.00 -98.0.00"/>
        <route edges="101.0.00 -100.0.00 -97.0.00 -96.0.00 92.0.00 93.0.00 -95.0.00 103.0.00 -102.0.00"/>
        <route edges="15.0.00 128.0.00 130.0.00 136.0.00 -137.0.00 62.0.00 -63.0.00 14.0.00 20.0.00 -21.0.00 133.0.00 -134.0.00"/>
        <route edges="57.0.00 -178.0.00 -177.0.00 -55.0.00 59.0.00 107.0.00 -105.0.00 -42.0.00 109.0.00 -108.0.00 112.0.00 -113.0.00 -188.0.00"/>
        <route edges="88.0.00 90.0.00 96.0.00 110.0.00 -108.0.00 -18.0.00"/>
        <route edges="15.0.00 128.0.00 130.0.00 136.0.00 -137.0.00 175.0.00 60.0.00 107.0.00 -105.0.00 -42.0.00 68.0.00 78.0.00 -79.0.00"/>
        <route edges="80.0.00 -81.0.00 73.0.00 75.0.00 -76.0.00 -71.0.00 91.0.00 -92.0.00 -90.0.00 -88.0.00"/>
        <route edges="-190.0.00 -189.0.00 16.0.00 -187.0.00 -116.0.00 189.0.00 111.0.00 -112.0.00 108.0.00 -110.0.00 -96.0.00 92.0.00 93.0.00 -95.0.00 173.0.00 -132.0.00 123.0.00 125.0.00 127.0.00 -128.0.00 77.0.00 -78.0.00 -69.0.00"/>
        <route edges="98.0.00 -97.0.00 -96.0.00 -90.0.00 -89.0.00 113.0.00 -112.0.00 66.0.00 115.0.00 -114.0.00 -13.0.00"/>
        <route edges="69.0.00 78.0.00 -77.0.00 128.0.00 -127.0.00 -125.0.00 -123.0.00 132.0.00 -173.0.00 95.0.00 -93.0.00 -92.0.00 96.0.00 97.0.00 100.0.00 -99.0.00"/>
        <route edges="41.0.00 43.0.00 -42.0.00 109.0.00 -110.0.00 -96.0.00 92.0.00 -91.0.00 71.0.00 76.0.00 -75.0.00 -73.0.00 81.0.00 -82.0.00"/>
        <route edges="80.0.00 -81.0.00 73.0.00 75.0.00 -76.0.00 -71.0.00 91.0.00 -92.0.00 -90.0.00 -89.0.00 -188.0.00"/>
        <route edges="74.0.00 75.0.00 -76.0.00 -71.0.00 91.0.00 -92.0.00 96.0.00 110.0.00 -108.0.00 -18.0.00"/>
        <route edges="150.0.00 -151.0.00 186.0.00 26.0.00 -185.0.00 -25.0.00 -21.0.00 58.0.00 118.0.00 -169.0.00 -119.0.00 60.0.00 107.0.00 -105.0.00 -43.0.00 -41.0.00"/>
        <route edges="79.0.00 -78.0.00 -68.0.00 42.0.00 105.0.00 -107.0.00 -60.0.00 119.0.00 169.0.00 -118.0.00 -58.0.00 21.0.00 25.0.00 185.0.00 -26.0.00 -186.0.00 151.0.00 -150.0.00"/>
        <route edges="101.0.00 -100.0.00 -97.0.00 -96.0.00 92.0.00 93.0.00 -95.0.00 173.0.00 -132.0.00 123.0.00 125.0.00 129.0.00 136.0.00 -137.0.00 175.0.00 60.0.00 -59.0.00 39.0.00 49.0.00 -50.0.00 -45.0.00 -180.0.00"/>
        <route edges="102.0.00 -103.0.00 95.0.00 -94.0.00"/>
        <route edges="13.0.00 17.0.00 -16.0.00 189.0.00 111.0.00 -112.0.00 108.0.00 -110.0.00 -96.0.00 92.0.00 -91.0.00 -67.0.00"/>
        <route edges="101.0.00 -100.0.00 -97.0.00 -96.0.00 -90.0.00 -89.0.00 113.0.00 -112.0.00 66.0.00 -65.0.00"/>
        <route edges="98.0.00 -97.0.00 -96.0.00 92.0.00 93.0.00 -94.0.00"/>
        <route edges="57.0.00 -178.0.00 -177.0.00 -55.0.00 59.0.00 -60.0.00 -175.0.00 137.0.00 -135.0.00 -121.0.00 -61.0.00 162.0.00 -163.0.00 -24.0.00"/>
        <route edges="79.0.00 -78.0.00 -68.0.00 109.0.00 -108.0.00 112.0.00 -113.0.00 -188.0.00"/>
        <route edges="88.0.00 90.0.00 92.0.00 93.0.00 -94.0.00"/>
        <route edges="70.0.00 -71.0.00 91.0.00 -92.0.00 -90.0.00 -89.0.00 113.0.00 -112.0.00 108.0.00 -110.0.00 -96.0.00 92.0.00 93.0.00 -95.0.00 103.0.00 -102.0.00"/>
        <route edges="150.0.00 -151.0.00 186.0.00 26.0.00 139.0.00 140.0.00 183.0.00 -27.0.00 154.0.00 -152.0.00 19.0.00 156.0.00 -155.0.00 159.0.00 -158.0.00 61.0.00 124.0.00 -123.0.00 132.0.00 -173.0.00 95.0.00 -93.0.00 -92.0.00 96.0.00 110.0.00 -108.0.00 -18.0.00"/>
        <route edges="188.0.00 113.0.00 -112.0.00 108.0.00 -110.0.00 -96.0.00 -90.0.00 -88.0.00"/>
        <route edges="79.0.00 -78.0.00 -68.0.00 109.0.00 -108.0.00 -18.0.00"/>
        <route edges="41.0.00 43.0.00 105.0.00 -107.0.00 -59.0.00 39.0.00 49.0.00 -50.0.00 -45.0.00 -180.0.00"/>
        <route edges="65.0.00 -66.0.00 108.0.00 -110.0.00 -96.0.00 92.0.00 93.0.00 -95.0.00 173.0.00 -132.0.00 123.0.00 125.0.00 129.0.00 136.0.00 -137.0.00 62.0.00 -63.0.00 14.0.00 20.0.00 -21.0.00 133.0.00 -134.0.00"/>
        <route edges="74.0.00 75.0.00 -76.0.00 -71.0.00 91.0.00 -92.0.00 96.0.00 97.0.00 100.0.00 -101.0.00"/>
        <route edges="72.0.00 73.0.00 75.0.00 -76.0.00 -71.0.00 91.0.00 -92.0.00 -90.0.00 -89.0.00 113.0.00 -112.0.00 108.0.00 -110.0.00 -96.0.00 92.0.00 93.0.00 -95.0.00 173.0.00 -132.0.00 123.0.00 -124.0.00 -61.0.00 162.0.00 -163.0.00 -24.0.00"/>
        <route edges="15.0.00 128.0.00 -127.0.00 -125.0.00 -123.0.00 132.0.00 -173.0.00 95.0.00 -94.0.00"/>
        <route edges="94.0.00 -95.0.00 173.0.00 -132.0.00 -172.0.00 -104.0.00"/>
        <route edges="88.0.00 90.0.00 92.0.00 -91.0.00 71.0.00 76.0.00 -75.0.00 -73.0.00 81.0.00 -80.0.00"/>
        <route edges="13.0.00 17.0.00 -16.0.00 189.0.00 190.0.00"/>
        <route edges="72.0.00 73.0.00 75.0.00 83.0.00 86.0.00 -87.0.00"/>
        <route edges="102.0.00 -103.0.00 95.0.00 -93.0.00 -92.0.00 -90.0.00 -89.0.00 113.0.00 -112.0.00 108.0.00 -110.0.00 -96.0.00 92.0.00 -91.0.00 71.0.00 76.0.00 -75.0.00 -73.0.00 -72.0.00"/>
        <route edges="80.0.00 -81.0.00 73.0.00 75.0.00 -76.0.00 -71.0.00 91.0.00 -92.0.00 -90.0.00 -89.0.00 113.0.00 -112.0.00 108.0.00 -110.0.00 -96.0.00 92.0.00 93.0.00 -94.0.00"/>
        <route edges="79.0.00 -78.0.00 -68.0.00 109.0.00 -110.0.00 -96.0.00 92.0.00 -91.0.00 71.0.00 -70.0.00"/>
        <route edges="134.0.00 -133.0.00 21.0.00 -20.0.00 -14.0.00 63.0.00 -62.0.00 137.0.00 -136.0.00 -129.0.00 -125.0.00 -123.0.00 132.0.00 -173.0.00 95.0.00 -93.0.00 -92.0.00 -90.0.00 -88.0.00"/>
        <route edges="-190.0.00 -189.0.00 16.0.00 -187.0.00 -116.0.00 189.0.00 111.0.00 -112.0.00 108.0.00 -110.0.00 -96.0.00 92.0.00 93.0.00 -94.0.00"/>
        <route edges="13.0.00 17.0.00 -16.0.00 189.0.00 111.0.00 -112.0.00 108.0.00 -110.0.00 -96.0.00 92.0.00 93.0.00 -95.0.00 173.0.00 -132.0.00 123.0.00 125.0.00 127.0.00 -128.0.00 77.0.00 -78.0.00 -69.0.00"/>
        <route edges="131.0.00 -173.0.00 95.0.00 -93.0.00 -92.0.00 96.0.00 97.0.00 100.0.00 -101.0.00"/>
        <route edges="72.0.00 73.0.00 75.0.00 -76.0.00 -71.0.00 91.0.00 -92.0.00 -90.0.00 -89.0.00 113.0.00 -112.0.00 108.0.00 -110.0.00 -96.0.00 92.0.00 -91.0.00 71.0.00 -70.0.00"/>
        <route edges="67.0.00 91.0.00 -92.0.00 -90.0.00 -89.0.00 113.0.00 -112.0.00 108.0.00 -110.0.00 -96.0.00 92.0.00 93.0.00 -95.0.00 173.0.00 -132.0.00 123.0.00 125.0.00 129.0.00 136.0.00 -137.0.00 62.0.00 -63.0.00 14.0.00 20.0.00 -21.0.00 58.0.00 118.0.00 -117.0.00"/>
        <route edges="13.0.00 17.0.00 -16.0.00 189.0.00 111.0.00 -112.0.00 108.0.00 -110.0.00 -96.0.00 92.0.00 93.0.00 -95.0.00 173.0.00 -131.0.00"/>
        <route edges="70.0.00 -71.0.00 91.0.00 -92.0.00 -90.0.00 -89.0.00 113.0.00 -112.0.00 108.0.00 -110.0.00 -96.0.00 92.0.00 -91.0.00 -67.0.00"/>
        <route edges="99.0.00 -100.0.00 -97.0.00 -96.0.00 -90.0.00 -89.0.00 113.0.00 -112.0.00 66.0.00 115.0.00 -116.0.00 16.0.00 -187.0.00 -115.0.00 -66.0.00 112.0.00 -113.0.00 89.0.00 90.0.00 96.0.00 97.0.00 -98.0.00"/>
        <route edges="131.0.00 -173.0.00 95.0.00 -93.0.00 -92.0.00 -90.0.00 -89.0.00 113.0.00 -112.0.00 108.0.00 -110.0.00 -96.0.00 92.0.00 -91.0.00 71.0.00 76.0.00 -75.0.00 -73.0.00 -72.0.00"/>
        <route edges="94.0.00 -95.0.00 173.0.00 -132.0.00 123.0.00 125.0.00 127.0.00 -128.0.00 77.0.00 -78.0.00 -68.0.00 42.0.00 -43.0.00 -41.0.00"/>
        <route edges="72.0.00 73.0.00 75.0.00 83.0.00 -84.0.00"/>
        <route edges="104.0.00 172.0.00 132.0.00 -173.0.00 95.0.00 -93.0.00 -92.0.00 -90.0.00 -89.0.00 113.0.00 -112.0.00 108.0.00 -110.0.00 -96.0.00 92.0.00 -91.0.00 71.0.00 76.0.00 -75.0.00 -74.0.00"/>
        <route edges="88.0.00 90.0.00 96.0.00 110.0.00 -108.0.00 112.0.00 -111.0.00 -189.0.00 16.0.00 -17.0.00 -13.0.00"/>
        <route edges="70.0.00 -71.0.00 91.0.00 -92.0.00 -90.0.00 -89.0.00 -188.0.00"/>
        <route edges="24.0.00 163.0.00 -162.0.00 61.0.00 124.0.00 -123.0.00 132.0.00 -173.0.00 95.0.00 -93.0.00 -92.0.00 96.0.00 110.0.00 -108.0.00 112.0.00 -111.0.00 -189.0.00 16.0.00 -187.0.00 -116.0.00 189.0.00 190.0.00"/>
        <route edges="131.0.00 -173.0.00 95.0.00 -93.0.00 -92.0.00 96.0.00 97.0.00 100.0.00 -99.0.00"/>
        <route edges="180.0.00 45.0.00 50.0.00 -49.0.00 -39.0.00 59.0.00 -60.0.00 119.0.00 169.0.00 -118.0.00 -58.0.00 21.0.00 25.0.00 185.0.00 -26.0.00 -186.0.00 151.0.00 -150.0.00"/>
        <route edges="41.0.00 43.0.00 -42.0.00 68.0.00 78.0.00 -77.0.00 128.0.00 -127.0.00 -125.0.00 -124.0.00 -61.0.00 162.0.00 -163.0.00 -24.0.00"/>
        <route edges="65.0.00 -66.0.00 108.0.00 -110.0.00 -96.0.00 92.0.00 93.0.00 -95.0.00 103.0.00 -102.0.00"/>
        <route edges="180.0.00 45.0.00 50.0.00 -49.0.00 -39.0.00 59.0.00 107.0.00 -105.0.00 -42.0.00 109.0.00 -108.0.00 112.0.00 -111.0.00 -189.0.00 16.0.00 -187.0.00 -116.0.00 189.0.00 190.0.00"/>
        <route edges="99.0.00 -100.0.00 -97.0.00 -96.0.00 92.0.00 93.0.00 -94.0.00"/>
        <route edges="150.0.00 -151.0.00 186.0.00 26.0.00 -185.0.00 -25.0.00 -21.0.00 58.0.00 118.0.00 -169.0.00 -119.0.00 60.0.00 107.0.00 -106.0.00 -47.0.00"/>
        <route edges="72.0.00 73.0.00 75.0.00 -76.0.00 -71.0.00 91.0.00 -92.0.00 96.0.00 110.0.00 -109.0.00 42.0.00 105.0.00 -106.0.00 -47.0.00"/>
        <route edges="99.0.00 -100.0.00 -97.0.00 -96.0.00 -90.0.00 -89.0.00 113.0.00 -112.0.00 66.0.00 -65.0.00"/>
        <route edges="24.0.00 163.0.00 -162.0.00 61.0.00 124.0.00 -123.0.00 132.0.00 -173.0.00 95.0.00 -93.0.00 -92.0.00 -90.0.00 -89.0.00 113.0.00 -112.0.00 108.0.00 -110.0.00 -96.0.00 92.0.00 -91.0.00 71.0.00 76.0.00 -75.0.00 -73.0.00 -72.0.00"/>
        <route edges="101.0.00 -100.0.00 -97.0.00 -96.0.00 92.0.00 -91.0.00 71.0.00 76.0.00 -75.0.00 -73.0.00 81.0.00 -82.0.00"/>
        <route edges="102.0.00 -103.0.00 95.0.00 -93.0.00 -92.0.00 -90.0.00 -89.0.00 113.0.00 -112.0.00 108.0.00 -110.0.00 -96.0.00 92.0.00 -91.0.00 71.0.00 76.0.00 -75.0.00 -73.0.00 81.0.00 -80.0.00"/>
        <route edges="57.0.00 -178.0.00 -177.0.00 -55.0.00 59.0.00 -60.0.00 -175.0.00 137.0.00 -136.0.00 -129.0.00 -125.0.00 -123.0.00 132.0.00 -173.0.00 95.0.00 -93.0.00 -92.0.00 96.0.00 97.0.00 -98.0.00"/>
        <route edges="104.0.00 172.0.00 132.0.00 -173.0.00 95.0.00 -93.0.00 -92.0.00 96.0.00 110.0.00 -108.0.00 112.0.00 -111.0.00 -189.0.00 16.0.00 -17.0.00 -13.0.00"/>
        <route edges="82.0.00 -81.0.00 73.0.00 75.0.00 -76.0.00 -71.0.00 91.0.00 -92.0.00 -90.0.00 -89.0.00 113.0.00 -112.0.00 108.0.00 -110.0.00 -96.0.00 92.0.00 93.0.00 -95.0.00 173.0.00 -132.0.00 123.0.00 -124.0.00 -61.0.00 158.0.00 -159.0.00 155.0.00 -156.0.00 -19.0.00 152.0.00 -154.0.00 -23.0.00 138.0.00 -139.0.00 -26.0.00 -186.0.00 151.0.00 -150.0.00"/>
        <route edges="13.0.00 17.0.00 -16.0.00 189.0.00 111.0.00 -112.0.00 108.0.00 -110.0.00 -96.0.00 92.0.00 93.0.00 -95.0.00 173.0.00 -132.0.00 123.0.00 -124.0.00 -61.0.00 162.0.00 -163.0.00 -24.0.00"/>
        <route edges="82.0.00 -81.0.00 73.0.00 75.0.00 -76.0.00 -71.0.00 91.0.00 -92.0.00 -90.0.00 -89.0.00 113.0.00 -112.0.00 108.0.00 -110.0.00 -96.0.00 92.0.00 93.0.00 -95.0.00 173.0.00 -132.0.00 123.0.00 125.0.00 129.0.00 136.0.00 -137.0.00 62.0.00 -63.0.00 14.0.00 20.0.00 -21.0.00 133.0.00 -134.0.00"/>
        <route edges="102.0.00 -103.0.00 95.0.00 -93.0.00 -92.0.00 -90.0.00 -89.0.00 113.0.00 -112.0.00 108.0.00 -110.0.00 -96.0.00 92.0.00 -91.0.00 71.0.00 76.0.00 -75.0.00 -74.0.00"/>
        <route edges="82.0.00 -81.0.00 73.0.00 75.0.00 -76.0.00 -71.0.00 91.0.00 -92.0.00 96.0.00 110.0.00 -108.0.00 112.0.00 -111.0.00 -189.0.00 16.0.00 -17.0.00 -13.0.00"/>
        <route edges="180.0.00 45.0.00 50.0.00 -49.0.00 -39.0.00 59.0.00 -60.0.00 -175.0.00 137.0.00 -136.0.00 -129.0.00 -125.0.00 -123.0.00 132.0.00 -131.0.00"/>
        <route edges="82.0.00 -81.0.00 73.0.00 75.0.00 -76.0.00 -71.0.00 91.0.00 -92.0.00 96.0.00 110.0.00 -108.0.00 -18.0.00"/>
        <route edges="72.0.00 73.0.00 75.0.00 -76.0.00 -71.0.00 91.0.00 -92.0.00 -90.0.00 -89.0.00 113.0.00 -112.0.00 108.0.00 -110.0.00 -96.0.00 92.0.00 93.0.00 -95.0.00 173.0.00 -132.0.00 123.0.00 125.0.00 127.0.00 -128.0.00 -15.0.00"/>
        <route edges="13.0.00 17.0.00 -16.0.00 189.0.00 111.0.00 -112.0.00 108.0.00 -109.0.00 42.0.00 105.0.00 -106.0.00 -47.0.00"/>
        <route edges="67.0.00 91.0.00 -92.0.00 96.0.00 110.0.00 -109.0.00 42.0.00 105.0.00 -107.0.00 -59.0.00 55.0.00 177.0.00 178.0.00 -57.0.00"/>
        <route edges="70.0.00 -71.0.00 91.0.00 -92.0.00 96.0.00 110.0.00 -108.0.00 -18.0.00"/>
        <route edges="88.0.00 90.0.00 92.0.00 93.0.00 -95.0.00 173.0.00 -132.0.00 -172.0.00 -104.0.00"/>
        <route edges="80.0.00 -81.0.00 73.0.00 75.0.00 -76.0.00 -71.0.00 91.0.00 -92.0.00 96.0.00 110.0.00 -108.0.00 -18.0.00"/>
        <route edges="104.0.00 172.0.00 132.0.00 -173.0.00 95.0.00 -93.0.00 -92.0.00 -90.0.00 -89.0.00 -188.0.00"/>