<routes>
<routeDistribution id="routedist1">
        <route edges="366.0.00 -286.0.00 -287.0.00 222.0.00 10.0.00 9.0.00"/>
        <route edges="-392.0.00 -377.0.00 -521.0.00 -522.0.00 500.0.00 306.0.00 386.0.00 236.0.00 154.0.00 -344.0.00 -282.0.00 -283.0.00 -284.0.00 353.0.00 352.0.00 351.0.00 350.0.00 349.0.00 348.0.00 347.0.00 346.0.00 -493.0.00 -494.0.00 -424.0.00 -425.0.00 -426.0.00 -427.0.00 -428.0.00 -429.0.00 -430.0.00 -431.0.00 -432.0.00"/>
        <route edges="394.0.00 286.0.00 285.0.00 284.0.00 283.0.00 388.0.00 -154.0.00 -368.0.00 -185.0.00 -356.0.00"/>
        <route edges="-484.0.00 -229.0.00 -243.0.00 -244.0.00 -511.0.00 -512.0.00 -513.0.00 -514.0.00 -515.0.00 -516.0.00 -517.0.00 -458.0.00 -459.0.00 -460.0.00 -340.0.00 -341.0.00 -342.0.00 -343.0.00 -304.0.00 -252.0.00 531.0.00 451.0.00 187.0.00 -391.0.00 -536.0.00 -537.0.00 -538.0.00 -284.0.00 -285.0.00 -286.0.00 -287.0.00 -288.0.00 -289.0.00 -290.0.00 -291.0.00"/>
        <route edges="291.0.00 290.0.00 289.0.00 288.0.00 287.0.00 286.0.00 285.0.00 284.0.00 538.0.00 246.0.00 -194.0.00 304.0.00 343.0.00 342.0.00 341.0.00 340.0.00 339.0.00 338.0.00 337.0.00"/>
        <route edges="394.0.00 -287.0.00 -288.0.00 126.0.00 498.0.00 497.0.00 0.0.00 -253.0.00 -312.0.00"/>
        <route edges="-227.0.00 -295.0.00 463.0.00 -275.0.00 -417.0.00 -418.0.00 -419.0.00 -464.0.00"/>
        <route edges="-492.0.00 -493.0.00 -494.0.00 -495.0.00 -450.0.00 -468.0.00 -295.0.00 -296.0.00 -8.0.00"/>
        <route edges="355.0.00 354.0.00 284.0.00 -539.0.00 -355.0.00"/>
        <route edges="-492.0.00 -493.0.00 -494.0.00 -495.0.00 -450.0.00 -468.0.00 227.0.00"/>
        <route edges="394.0.00 286.0.00 285.0.00 284.0.00 538.0.00 246.0.00 -194.0.00 304.0.00 343.0.00 342.0.00 341.0.00 251.0.00 406.0.00 369.0.00 516.0.00 532.0.00 379.0.00 277.0.00 373.0.00"/>
        <route edges="-492.0.00 -493.0.00 -494.0.00 423.0.00 422.0.00"/>
        <route edges="312.0.00 -378.0.00 -372.0.00 -476.0.00 288.0.00 222.0.00 10.0.00 296.0.00 295.0.00 468.0.00 450.0.00 495.0.00 423.0.00 422.0.00"/>
        <route edges="305.0.00 -472.0.00 -310.0.00 -299.0.00 -325.0.00 -164.0.00 341.0.00 251.0.00 406.0.00 369.0.00 516.0.00 532.0.00 379.0.00 277.0.00 373.0.00"/>
        <route edges="4.291.06 4.290.90 4.0.00 -280.0.00 -281.0.00 -282.0.00 -283.0.00 -284.0.00 353.0.00 352.0.00 351.0.00 350.0.00 349.0.00 348.0.00 347.0.00 346.0.00 -493.0.00 -494.0.00 -424.0.00 -425.0.00 -426.0.00 -427.0.00 -428.0.00 -429.0.00 -430.0.00 -431.0.00 -432.0.00"/>
        <route edges="228.0.00 -295.0.00 -296.0.00 -10.0.00 -222.0.00 287.0.00 286.0.00 285.0.00 284.0.00 283.0.00 282.0.00 281.0.00 280.0.00 -4.0.00 -4.290.90 -4.291.06"/>
        <route edges="-392.0.00 -377.0.00 -521.0.00 -522.0.00 500.0.00 306.0.00 386.0.00 -276.0.00 303.0.00 433.0.00"/>
        <route edges="305.0.00 -472.0.00 -310.0.00 -299.0.00 -325.0.00 -326.0.00 -38.0.00 -304.0.00 -252.0.00 531.0.00 451.0.00 187.0.00 -391.0.00 -536.0.00 -537.0.00 -538.0.00 -284.0.00 -285.0.00 -286.0.00 -287.0.00 222.0.00 10.0.00 9.0.00"/>
        <route edges="312.0.00 253.0.00 504.0.00 436.0.00 263.0.00 237.0.00 -469.0.00 -421.0.00 -464.0.00"/>
        <route edges="312.0.00 -378.0.00 -372.0.00 -476.0.00 288.0.00 287.0.00 286.0.00 285.0.00 284.0.00 538.0.00 246.0.00 -194.0.00 304.0.00 343.0.00 342.0.00 341.0.00 251.0.00 406.0.00 369.0.00 516.0.00 532.0.00 379.0.00 277.0.00 373.0.00"/>
        <route edges="464.0.00 419.0.00 418.0.00 417.0.00 275.0.00 233.0.00 232.0.00 231.0.00 230.0.00 -474.0.00 -209.0.00 -365.0.00 285.0.00 284.0.00 283.0.00 388.0.00 -154.0.00 -236.0.00 -386.0.00 -306.0.00 -387.0.00 522.0.00 297.0.00 392.0.00"/>
        <route edges="8.0.00 296.0.00 295.0.00 -228.0.00"/>
        <route edges="-373.0.00 -525.0.00 -507.0.00 -514.0.00 -515.0.00 -516.0.00 -517.0.00 -458.0.00 -269.0.00 -97.0.00 -359.0.00 338.0.00 337.0.00"/>
        <route edges="8.0.00 -10.0.00 -222.0.00 287.0.00 286.0.00 365.0.00 364.0.00 171.0.00 381.0.00 319.0.00 -230.0.00 -238.0.00 -524.0.00 -414.0.00 -393.0.00 -287.0.00 222.0.00 10.0.00 -8.0.00"/>
        <route edges="-227.0.00 -295.0.00 463.0.00 -275.0.00 -417.0.00 266.0.00 491.0.00 -311.0.00 261.0.00 260.0.00 259.0.00 300.0.00 471.0.00"/>
        <route edges="4.291.06 4.290.90 4.0.00 -280.0.00 -281.0.00 -282.0.00 -283.0.00 538.0.00 537.0.00 536.0.00 197.0.00 187.0.00 -391.0.00 -536.0.00 -537.0.00 -538.0.00 283.0.00 282.0.00 281.0.00 280.0.00 -4.0.00 -4.290.90 -4.291.06"/>
        <route edges="-9.0.00 -10.0.00 -222.0.00 287.0.00 286.0.00 285.0.00 284.0.00 538.0.00 246.0.00 -194.0.00 304.0.00 343.0.00 342.0.00 341.0.00 251.0.00 406.0.00 369.0.00 516.0.00 532.0.00 379.0.00 277.0.00 373.0.00"/>
        <route edges="312.0.00 -378.0.00 -372.0.00 -476.0.00 288.0.00 222.0.00 10.0.00 296.0.00 295.0.00 468.0.00 450.0.00 495.0.00 494.0.00 493.0.00 492.0.00"/>
        <route edges="-408.0.00 -408.1.36 -408.1.69 -411.0.00 -412.0.00 -413.0.00 -414.0.00 -393.0.00 286.0.00 285.0.00 284.0.00 283.0.00 388.0.00 -154.0.00 -368.0.00 -185.0.00 -356.0.00"/>
        <route edges="-337.0.00 -338.0.00 -339.0.00 -340.0.00 -341.0.00 -342.0.00 -343.0.00 -304.0.00 -252.0.00 531.0.00 451.0.00 187.0.00 -391.0.00 -536.0.00 90.0.00 -268.0.00 -334.0.00 -194.0.00 304.0.00 343.0.00 342.0.00 341.0.00 340.0.00 339.0.00 338.0.00 337.0.00"/>
        <route edges="432.0.00 431.0.00 430.0.00 429.0.00 428.0.00 427.0.00 457.0.00 400.0.00 -415.0.00 -428.0.00 -429.0.00 -430.0.00 -431.0.00 -432.0.00"/>
        <route edges="228.0.00 468.0.00 -439.0.00 -439.2.76 -439.90.19 -442.0.00 -442.5996.56 -423.0.00 -495.0.00 -450.0.00 -468.0.00 -228.0.00"/>
        <route edges="-227.0.00 -295.0.00 -296.0.00 -10.0.00 -222.0.00 -288.0.00 126.0.00 498.0.00 497.0.00 0.0.00 -253.0.00 -312.0.00"/>
        <route edges="-484.0.00 -229.0.00 -243.0.00 -244.0.00 -511.0.00 -512.0.00 -513.0.00 -514.0.00 -515.0.00 -516.0.00 -517.0.00 -458.0.00 -459.0.00 -460.0.00 -340.0.00 -341.0.00 -342.0.00 -343.0.00 -304.0.00 -252.0.00 531.0.00 451.0.00 187.0.00 -391.0.00 -536.0.00 -537.0.00 -538.0.00 -284.0.00 -285.0.00 -286.0.00 -287.0.00 -223.0.00 -223.7.36 -223.7.86"/>
        <route edges="-484.0.00 -273.0.00 -279.0.00 -267.0.00 -242.0.00 -240.0.00 -255.0.00 -395.0.00 401.0.00 400.0.00 -415.0.00 -428.0.00 -429.0.00 -430.0.00 -431.0.00 -432.0.00"/>
        <route edges="-408.0.00 -408.1.36 -408.1.69 -411.0.00 -412.0.00 -413.0.00 -414.0.00 -393.0.00 286.0.00 285.0.00 284.0.00 538.0.00 246.0.00 -194.0.00 304.0.00 343.0.00 342.0.00 341.0.00 251.0.00 406.0.00 369.0.00 516.0.00 532.0.00 379.0.00 277.0.00 373.0.00"/>
        <route edges="-433.0.00 328.0.00 241.0.00 -306.0.00 -387.0.00 522.0.00 521.0.00 520.0.00 519.0.00 -357.0.00 -435.0.00 -465.0.00 -460.0.00 -340.0.00 -341.0.00 -342.0.00 -343.0.00 -304.0.00 -252.0.00 531.0.00 451.0.00 187.0.00 -391.0.00 -536.0.00 -537.0.00 -538.0.00 -284.0.00 -285.0.00 -366.0.00"/>
        <route edges="-471.0.00 -407.0.00 -260.0.00 138.0.00 -469.0.00 -221.0.00 275.0.00 233.0.00 232.0.00 231.0.00 230.0.00 6.0.00 317.0.00 307.0.00 248.0.00 252.0.00 304.0.00 533.0.00 310.0.00 472.0.00 -305.0.00"/>
        <route edges="394.0.00 -287.0.00 -288.0.00 -289.0.00 -290.0.00 -291.0.00"/>
        <route edges="291.0.00 290.0.00 289.0.00 288.0.00 287.0.00 286.0.00 285.0.00 284.0.00 283.0.00 388.0.00 -154.0.00 -236.0.00 -386.0.00 -306.0.00 -387.0.00 522.0.00 297.0.00 392.0.00"/>
        <route edges="-337.0.00 -338.0.00 -339.0.00 -340.0.00 -341.0.00 -342.0.00 -343.0.00 -304.0.00 -252.0.00 531.0.00 451.0.00 187.0.00 -391.0.00 -536.0.00 -537.0.00 -538.0.00 -284.0.00 -285.0.00 -286.0.00 -287.0.00 -288.0.00 126.0.00 498.0.00 497.0.00 0.0.00 -253.0.00 -312.0.00"/>
        <route edges="355.0.00 354.0.00 353.0.00 352.0.00 351.0.00 350.0.00 349.0.00 348.0.00 347.0.00 346.0.00 -493.0.00 -494.0.00 -424.0.00 -425.0.00 -426.0.00 -427.0.00 -428.0.00 -429.0.00 -430.0.00 -431.0.00 -432.0.00"/>
        <route edges="355.0.00 539.0.00 283.0.00 282.0.00 281.0.00 280.0.00 -4.0.00 -4.290.90 -4.291.06"/>
        <route edges="-227.0.00 -295.0.00 -296.0.00 -10.0.00 -222.0.00 287.0.00 286.0.00 285.0.00 284.0.00 283.0.00 388.0.00 -154.0.00 -236.0.00 -386.0.00 -306.0.00 -387.0.00 522.0.00 297.0.00 392.0.00"/>
        <route edges="-408.0.00 -408.1.36 -408.1.69 -411.0.00 -412.0.00 -413.0.00 -414.0.00 -393.0.00 286.0.00 365.0.00 364.0.00 363.0.00 362.0.00 361.0.00 -494.0.00 423.0.00 422.0.00"/>
        <route edges="-373.0.00 -525.0.00 -507.0.00 -514.0.00 -515.0.00 -516.0.00 -517.0.00 -458.0.00 -459.0.00 -460.0.00 -340.0.00 -341.0.00 -342.0.00 -343.0.00 -304.0.00 -252.0.00 -248.0.00 -307.0.00 -317.0.00 -6.0.00 -230.0.00 -231.0.00 -232.0.00 -233.0.00 -275.0.00 -417.0.00 -418.0.00 -419.0.00 -464.0.00"/>
        <route edges="223.7.86 223.7.36 223.0.00 287.0.00 286.0.00 285.0.00 284.0.00 283.0.00 388.0.00 -154.0.00 -368.0.00 -185.0.00 -356.0.00"/>
        <route edges="489.0.00 488.0.00 272.0.00 -515.0.00 -516.0.00 -517.0.00 -458.0.00 -459.0.00 -460.0.00 -340.0.00 -341.0.00 -342.0.00 -343.0.00 -304.0.00 -252.0.00 531.0.00 451.0.00 187.0.00 -391.0.00 -536.0.00 -537.0.00 -538.0.00 -284.0.00 -285.0.00 -366.0.00"/>
        <route edges="355.0.00 539.0.00 538.0.00 246.0.00 -194.0.00 304.0.00 343.0.00 342.0.00 341.0.00 251.0.00 250.0.00 249.0.00 -520.0.00 -521.0.00 -522.0.00 500.0.00 306.0.00 386.0.00 -276.0.00 303.0.00 433.0.00"/>
        <route edges="-484.0.00 -273.0.00 -279.0.00 -267.0.00 -265.0.00 346.0.00 -493.0.00 -494.0.00 -495.0.00 -450.0.00 -468.0.00 227.0.00"/>
        <route edges="-433.0.00 328.0.00 241.0.00 -306.0.00 -387.0.00 522.0.00 521.0.00 520.0.00 519.0.00 -357.0.00 -435.0.00 -465.0.00 -460.0.00 -340.0.00 -341.0.00 -342.0.00 -343.0.00 -304.0.00 -252.0.00 531.0.00 451.0.00 187.0.00 -391.0.00 -536.0.00 -537.0.00 -538.0.00 -284.0.00 -285.0.00 -286.0.00 -287.0.00 -223.0.00 -223.7.36 -223.7.86"/>
        <route edges="355.0.00 354.0.00 -285.0.00 -286.0.00 -287.0.00 222.0.00 10.0.00 296.0.00 295.0.00 -228.0.00"/>
        <route edges="464.0.00 419.0.00 380.0.00 491.0.00 -311.0.00 261.0.00 260.0.00 259.0.00 258.0.00 257.0.00 256.0.00 255.0.00 240.0.00 242.0.00 267.0.00 279.0.00 273.0.00 484.0.00"/>
        <route edges="394.0.00 286.0.00 285.0.00 353.0.00 352.0.00 351.0.00 350.0.00 438.0.00 508.0.00 267.0.00 279.0.00 273.0.00 484.0.00"/>
        <route edges="-422.0.00 -423.0.00 -495.0.00 -450.0.00 -468.0.00 -295.0.00 -296.0.00 9.0.00"/>
        <route edges="-408.0.00 -408.1.36 -408.1.69 -411.0.00 -412.0.00 -413.0.00 -414.0.00 -393.0.00 286.0.00 365.0.00 364.0.00 171.0.00 381.0.00 319.0.00 -230.0.00 -238.0.00 -239.0.00 408.1.69 408.1.36 408.0.00"/>
        <route edges="4.291.06 4.290.90 4.0.00 -280.0.00 -281.0.00 -282.0.00 -283.0.00 -284.0.00 -285.0.00 -286.0.00 -287.0.00 222.0.00 10.0.00 296.0.00 295.0.00 -228.0.00"/>
        <route edges="-9.0.00 -10.0.00 -222.0.00 -288.0.00 126.0.00 456.0.00 335.0.00 436.0.00 263.0.00 237.0.00 -469.0.00 -421.0.00 -464.0.00"/>
        <route edges="-9.0.00 296.0.00 295.0.00 468.0.00 450.0.00 495.0.00 -424.0.00 -425.0.00 -426.0.00 -427.0.00 -428.0.00 -429.0.00 -430.0.00 -431.0.00 -432.0.00"/>
        <route edges="-433.0.00 328.0.00 241.0.00 -306.0.00 -387.0.00 522.0.00 521.0.00 520.0.00 519.0.00 -357.0.00 -435.0.00 -465.0.00 -460.0.00 -340.0.00 -341.0.00 -342.0.00 -343.0.00 -304.0.00 -252.0.00 531.0.00 451.0.00 187.0.00 -391.0.00 -536.0.00 -537.0.00 -538.0.00 -284.0.00 -285.0.00 -286.0.00 -287.0.00 222.0.00 10.0.00 9.0.00"/>
        <route edges="-227.0.00 -295.0.00 -296.0.00 -10.0.00 -222.0.00 -223.0.00 -223.7.36 -223.7.86"/>
        <route edges="366.0.00 365.0.00 364.0.00 171.0.00 381.0.00 319.0.00 -230.0.00 -231.0.00 -232.0.00 -233.0.00 -275.0.00 -417.0.00 -418.0.00 -419.0.00 -464.0.00"/>
        <route edges="-392.0.00 -377.0.00 -521.0.00 -522.0.00 500.0.00 306.0.00 386.0.00 236.0.00 154.0.00 -344.0.00 -282.0.00 -283.0.00 538.0.00 537.0.00 536.0.00 197.0.00 187.0.00 -391.0.00 -536.0.00 -537.0.00 -538.0.00 283.0.00 388.0.00 -154.0.00 -368.0.00 -185.0.00 -356.0.00"/>
        <route edges="-408.0.00 -408.1.36 -408.1.69 -411.0.00 309.0.00 -233.0.00 -275.0.00 -417.0.00 266.0.00 491.0.00 -311.0.00 261.0.00 260.0.00 259.0.00 300.0.00 471.0.00"/>
        <route edges="291.0.00 290.0.00 289.0.00 288.0.00 222.0.00 10.0.00 9.0.00"/>
        <route edges="4.291.06 4.290.90 4.0.00 -280.0.00 -281.0.00 -282.0.00 -283.0.00 538.0.00 246.0.00 -194.0.00 304.0.00 343.0.00 342.0.00 341.0.00 340.0.00 339.0.00 338.0.00 337.0.00"/>
        <route edges="-227.0.00 468.0.00 450.0.00 495.0.00 494.0.00 493.0.00 -346.0.00 -347.0.00 -348.0.00 455.0.00 322.0.00 434.0.00 508.0.00 267.0.00 -301.0.00 -302.0.00 -244.0.00 -511.0.00 -512.0.00 503.0.00 502.0.00 277.0.00 373.0.00"/>
        <route edges="228.0.00 -295.0.00 -296.0.00 -8.0.00"/>
        <route edges="-484.0.00 -229.0.00 -243.0.00 -244.0.00 -511.0.00 -512.0.00 -513.0.00 -514.0.00 -515.0.00 -516.0.00 -517.0.00 -458.0.00 -459.0.00 -460.0.00 -340.0.00 -341.0.00 -342.0.00 -343.0.00 -304.0.00 -252.0.00 531.0.00 451.0.00 187.0.00 -391.0.00 -536.0.00 -537.0.00 -538.0.00 -539.0.00 -355.0.00"/>
        <route edges="-422.0.00 -423.0.00 -495.0.00 -450.0.00 -468.0.00 -295.0.00 -296.0.00 -10.0.00 -222.0.00 -288.0.00 126.0.00 498.0.00 497.0.00 0.0.00 -253.0.00 -312.0.00"/>
        <route edges="-471.0.00 -407.0.00 -260.0.00 138.0.00 -469.0.00 -221.0.00 275.0.00 233.0.00 232.0.00 231.0.00 230.0.00 6.0.00 317.0.00 307.0.00 248.0.00 252.0.00 304.0.00 343.0.00 342.0.00 341.0.00 340.0.00 339.0.00 338.0.00 337.0.00"/>
        <route edges="8.0.00 -10.0.00 -222.0.00 -288.0.00 126.0.00 456.0.00 335.0.00 436.0.00 263.0.00 262.0.00 261.0.00 260.0.00 259.0.00 300.0.00 471.0.00"/>
        <route edges="-408.0.00 -408.1.36 -408.1.69 -411.0.00 -412.0.00 -413.0.00 -414.0.00 -393.0.00 -287.0.00 222.0.00 10.0.00 296.0.00 295.0.00 227.0.00"/>
        <route edges="312.0.00 -378.0.00 -372.0.00 -476.0.00 288.0.00 222.0.00 10.0.00 296.0.00 295.0.00 227.0.00"/>
        <route edges="-408.0.00 -408.1.36 -408.1.69 -411.0.00 -412.0.00 -413.0.00 -414.0.00 -393.0.00 286.0.00 285.0.00 284.0.00 538.0.00 246.0.00 -194.0.00 304.0.00 343.0.00 342.0.00 341.0.00 251.0.00 406.0.00 369.0.00 516.0.00 532.0.00 293.0.00 332.0.00 318.0.00 -487.0.00 -488.0.00 -489.0.00"/>
        <route edges="-422.0.00 -445.0.00 -445.2.23 -448.0.00 -449.0.00 -420.0.00 -477.0.00 -478.0.00 -479.0.00 -480.0.00 -481.0.00 -482.0.00 -483.0.00 -510.0.00 -511.0.00 -512.0.00 503.0.00 404.0.00 -489.0.00"/>
        <route edges="-422.0.00 -445.0.00 -445.2.23 -448.0.00 -449.0.00 -420.0.00 -477.0.00 -478.0.00 -479.0.00 -480.0.00 -481.0.00 -482.0.00 -483.0.00 -510.0.00 -511.0.00 -512.0.00 -513.0.00 -514.0.00 -515.0.00 -516.0.00 -517.0.00 -518.0.00 -519.0.00 -520.0.00 -521.0.00 -522.0.00 500.0.00 306.0.00 386.0.00 -276.0.00 303.0.00 433.0.00"/>
        <route edges="-408.0.00 -408.1.36 -408.1.69 -411.0.00 -412.0.00 -413.0.00 -414.0.00 -393.0.00 -287.0.00 -288.0.00 -289.0.00 -290.0.00 -291.0.00"/>
        <route edges="305.0.00 -472.0.00 -310.0.00 -299.0.00 -325.0.00 -326.0.00 -38.0.00 -304.0.00 -252.0.00 531.0.00 451.0.00 187.0.00 -391.0.00 -536.0.00 -537.0.00 -538.0.00 -284.0.00 -285.0.00 -286.0.00 -394.0.00"/>
        <route edges="291.0.00 290.0.00 289.0.00 288.0.00 222.0.00 10.0.00 296.0.00 295.0.00 227.0.00"/>
        <route edges="8.0.00 -10.0.00 -222.0.00 -288.0.00 126.0.00 498.0.00 497.0.00 0.0.00 -253.0.00 -312.0.00"/>
        <route edges="464.0.00 419.0.00 418.0.00 417.0.00 275.0.00 233.0.00 232.0.00 231.0.00 230.0.00 6.0.00 317.0.00 307.0.00 248.0.00 252.0.00 304.0.00 343.0.00 342.0.00 341.0.00 340.0.00 339.0.00 338.0.00 337.0.00"/>
        <route edges="394.0.00 -287.0.00 222.0.00 10.0.00 296.0.00 295.0.00 227.0.00"/>
        <route edges="312.0.00 -378.0.00 -372.0.00 -476.0.00 288.0.00 287.0.00 286.0.00 285.0.00 284.0.00 538.0.00 246.0.00 -194.0.00 304.0.00 343.0.00 342.0.00 341.0.00 251.0.00 250.0.00 249.0.00 -520.0.00 -521.0.00 -522.0.00 500.0.00 306.0.00 386.0.00 -276.0.00 303.0.00 433.0.00"/>
        <route edges="394.0.00 -287.0.00 -223.0.00 -223.7.36 -223.7.86"/>
        <route edges="489.0.00 488.0.00 487.0.00 -331.0.00 332.0.00 78.0.00 -149.0.00 511.0.00 510.0.00 483.0.00 490.0.00 315.0.00 273.0.00 484.0.00"/>
        <route edges="489.0.00 488.0.00 487.0.00 -331.0.00 332.0.00 318.0.00 -487.0.00 -488.0.00 -489.0.00"/>
        <route edges="-422.0.00 -445.0.00 -445.2.23 -360.0.00 -361.0.00 -362.0.00 -363.0.00 -364.0.00 -365.0.00 -366.0.00"/>
        <route edges="291.0.00 290.0.00 289.0.00 288.0.00 222.0.00 10.0.00 296.0.00 295.0.00 468.0.00 450.0.00 495.0.00 494.0.00 493.0.00 492.0.00"/>
        <route edges="291.0.00 290.0.00 289.0.00 288.0.00 222.0.00 10.0.00 296.0.00 295.0.00 -228.0.00"/>
        <route edges="312.0.00 -378.0.00 -372.0.00 -476.0.00 288.0.00 287.0.00 286.0.00 285.0.00 284.0.00 538.0.00 246.0.00 -194.0.00 304.0.00 343.0.00 342.0.00 341.0.00 251.0.00 406.0.00 369.0.00 516.0.00 532.0.00 293.0.00 332.0.00 318.0.00 -487.0.00 -488.0.00 -489.0.00"/>
        <route edges="-484.0.00 -273.0.00 -279.0.00 -267.0.00 -265.0.00 346.0.00 -493.0.00 -494.0.00 -495.0.00 -450.0.00 -468.0.00 -295.0.00 -296.0.00 -8.0.00"/>
        <route edges="223.7.86 223.7.36 223.0.00 287.0.00 286.0.00 285.0.00 284.0.00 538.0.00 246.0.00 -194.0.00 304.0.00 533.0.00 310.0.00 472.0.00 -305.0.00"/>
        <route edges="-433.0.00 328.0.00 241.0.00 -306.0.00 -387.0.00 522.0.00 521.0.00 520.0.00 519.0.00 518.0.00 517.0.00 516.0.00 515.0.00 514.0.00 513.0.00 512.0.00 511.0.00 510.0.00 483.0.00 490.0.00 315.0.00 273.0.00 484.0.00"/>
        <route edges="228.0.00 -295.0.00 -296.0.00 -10.0.00 -222.0.00 287.0.00 393.0.00 414.0.00 413.0.00 412.0.00 411.0.00 408.1.69 408.1.36 408.0.00"/>
        <route edges="-484.0.00 -229.0.00 -243.0.00 -244.0.00 -511.0.00 -512.0.00 -513.0.00 -514.0.00 -515.0.00 -516.0.00 -517.0.00 -458.0.00 -459.0.00 -460.0.00 -340.0.00 -341.0.00 -342.0.00 -343.0.00 -304.0.00 -252.0.00 531.0.00 451.0.00 187.0.00 -391.0.00 -536.0.00 -537.0.00 -538.0.00 283.0.00 282.0.00 281.0.00 280.0.00 -4.0.00 -4.290.90 -4.291.06"/>
        <route edges="228.0.00 -295.0.00 -296.0.00 9.0.00"/>
        <route edges="489.0.00 488.0.00 272.0.00 -515.0.00 -516.0.00 -517.0.00 -458.0.00 -459.0.00 -460.0.00 -340.0.00 -341.0.00 -342.0.00 -343.0.00 -304.0.00 -252.0.00 531.0.00 451.0.00 187.0.00 -391.0.00 -536.0.00 -537.0.00 -538.0.00 -284.0.00 -285.0.00 -286.0.00 -287.0.00 222.0.00 10.0.00 -8.0.00"/>
        <route edges="-337.0.00 371.0.00 370.0.00 369.0.00 516.0.00 532.0.00 293.0.00 332.0.00 318.0.00 -487.0.00 -488.0.00 -489.0.00"/>
        <route edges="-227.0.00 468.0.00 450.0.00 495.0.00 -424.0.00 -425.0.00 -426.0.00 -427.0.00 -428.0.00 -429.0.00 -430.0.00 -431.0.00 -432.0.00"/>
        <route edges="-422.0.00 -423.0.00 -495.0.00 -450.0.00 -468.0.00 -295.0.00 -296.0.00 -8.0.00"/>
        <route edges="-433.0.00 328.0.00 241.0.00 -306.0.00 -387.0.00 522.0.00 521.0.00 520.0.00 519.0.00 518.0.00 517.0.00 516.0.00 515.0.00 514.0.00 513.0.00 512.0.00 511.0.00 510.0.00 483.0.00 482.0.00 481.0.00 480.0.00 254.0.00 470.0.00 -267.0.00 -265.0.00 346.0.00 492.0.00"/>
        <route edges="432.0.00 431.0.00 430.0.00 429.0.00 428.0.00 427.0.00 426.0.00 425.0.00 424.0.00 423.0.00 422.0.00"/>
        <route edges="464.0.00 419.0.00 380.0.00 491.0.00 -270.0.00 -263.0.00 -461.0.00 -475.0.00 -476.0.00 288.0.00 -223.0.00 -223.7.36 -223.7.86"/>
        <route edges="-392.0.00 -377.0.00 -521.0.00 -522.0.00 500.0.00 306.0.00 386.0.00 236.0.00 154.0.00 -344.0.00 -282.0.00 -283.0.00 -284.0.00 353.0.00 352.0.00 351.0.00 350.0.00 438.0.00 508.0.00 267.0.00 279.0.00 273.0.00 484.0.00"/>
        <route edges="-9.0.00 -10.0.00 -222.0.00 287.0.00 286.0.00 285.0.00 353.0.00 352.0.00 351.0.00 350.0.00 438.0.00 508.0.00 267.0.00 279.0.00 273.0.00 484.0.00"/>
        <route edges="432.0.00 431.0.00 453.0.00 452.0.00 256.0.00 255.0.00 240.0.00 242.0.00 267.0.00 -301.0.00 -302.0.00 -244.0.00 -511.0.00 -512.0.00 -513.0.00 -514.0.00 -515.0.00 -516.0.00 -517.0.00 -458.0.00 -269.0.00 -97.0.00 -359.0.00 338.0.00 337.0.00"/>
        <route edges="-471.0.00 -407.0.00 -260.0.00 138.0.00 -469.0.00 -221.0.00 275.0.00 233.0.00 232.0.00 231.0.00 230.0.00 -474.0.00 -209.0.00 -365.0.00 285.0.00 -354.0.00 -355.0.00"/>
        <route edges="366.0.00 365.0.00 364.0.00 363.0.00 362.0.00 361.0.00 493.0.00 492.0.00"/>
        <route edges="223.7.86 223.7.36 223.0.00 222.0.00 10.0.00 296.0.00 295.0.00 -228.0.00"/>
        <route edges="312.0.00 -378.0.00 -372.0.00 -476.0.00 288.0.00 287.0.00 286.0.00 285.0.00 284.0.00 283.0.00 388.0.00 -154.0.00 -236.0.00 -386.0.00 -306.0.00 -387.0.00 522.0.00 297.0.00 392.0.00"/>
        <route edges="-408.0.00 -408.1.36 -408.1.69 -411.0.00 309.0.00 -233.0.00 -275.0.00 -417.0.00 -418.0.00 -419.0.00 -464.0.00"/>
        <route edges="-9.0.00 -10.0.00 -222.0.00 287.0.00 286.0.00 285.0.00 284.0.00 283.0.00 282.0.00 281.0.00 280.0.00 -4.0.00 -4.290.90 -4.291.06"/>
        <route edges="4.291.06 4.290.90 4.0.00 -280.0.00 -281.0.00 -282.0.00 -283.0.00 -284.0.00 -285.0.00 365.0.00 364.0.00 171.0.00 381.0.00 319.0.00 -230.0.00 -238.0.00 -239.0.00 408.1.69 408.1.36 408.0.00"/>
        <route edges="-337.0.00 -338.0.00 -339.0.00 -340.0.00 -341.0.00 -342.0.00 -343.0.00 -304.0.00 -252.0.00 531.0.00 451.0.00 187.0.00 -391.0.00 -536.0.00 -537.0.00 -538.0.00 -284.0.00 -285.0.00 -286.0.00 -287.0.00 222.0.00 10.0.00 9.0.00"/>
        <route edges="4.291.06 4.290.90 4.0.00 -280.0.00 -281.0.00 -282.0.00 -283.0.00 -284.0.00 -285.0.00 365.0.00 364.0.00 171.0.00 381.0.00 319.0.00 -230.0.00 -231.0.00 -232.0.00 -233.0.00 -275.0.00 -417.0.00 -418.0.00 -419.0.00 -464.0.00"/>
        <route edges="-471.0.00 -407.0.00 -260.0.00 -261.0.00 -262.0.00 -263.0.00 -461.0.00 -475.0.00 -476.0.00 288.0.00 287.0.00 393.0.00 414.0.00 413.0.00 389.0.00 -232.0.00 -233.0.00 -275.0.00 -417.0.00 266.0.00 491.0.00 -311.0.00 261.0.00 260.0.00 259.0.00 300.0.00 471.0.00"/>
        <route edges="223.7.86 223.7.36 223.0.00 222.0.00 10.0.00 9.0.00"/>
        <route edges="8.0.00 -10.0.00 -222.0.00 287.0.00 286.0.00 285.0.00 284.0.00 283.0.00 282.0.00 281.0.00 280.0.00 -4.0.00 -4.290.90 -4.291.06"/>
        <route edges="366.0.00 365.0.00 206.0.00 264.0.00 317.0.00 307.0.00 248.0.00 252.0.00 304.0.00 343.0.00 342.0.00 341.0.00 251.0.00 406.0.00 369.0.00 516.0.00 532.0.00 293.0.00 332.0.00 318.0.00 -487.0.00 -488.0.00 -489.0.00"/>
        <route edges="291.0.00 290.0.00 289.0.00 288.0.00 287.0.00 286.0.00 285.0.00 284.0.00 283.0.00 282.0.00 281.0.00 280.0.00 -4.0.00 -4.290.90 -4.291.06"/>
        <route edges="305.0.00 -472.0.00 -310.0.00 -299.0.00 -325.0.00 -326.0.00 -38.0.00 -304.0.00 -252.0.00 -248.0.00 -307.0.00 -317.0.00 -6.0.00 -230.0.00 -231.0.00 -232.0.00 -233.0.00 -275.0.00 -417.0.00 -418.0.00 -419.0.00 -464.0.00"/>
        <route edges="-9.0.00 -10.0.00 -222.0.00 -288.0.00 126.0.00 456.0.00 335.0.00 436.0.00 263.0.00 262.0.00 261.0.00 260.0.00 259.0.00 300.0.00 471.0.00"/>
        <route edges="312.0.00 -378.0.00 -372.0.00 -476.0.00 288.0.00 287.0.00 286.0.00 365.0.00 364.0.00 171.0.00 381.0.00 319.0.00 -230.0.00 -238.0.00 -524.0.00 -414.0.00 -393.0.00 -287.0.00 -288.0.00 126.0.00 498.0.00 497.0.00 0.0.00 -253.0.00 -312.0.00"/>
        <route edges="-484.0.00 -229.0.00 -243.0.00 -244.0.00 -511.0.00 -512.0.00 -513.0.00 -514.0.00 -515.0.00 -516.0.00 -517.0.00 -458.0.00 -459.0.00 -460.0.00 -340.0.00 -341.0.00 -342.0.00 -343.0.00 -304.0.00 -252.0.00 531.0.00 451.0.00 187.0.00 -391.0.00 -536.0.00 -537.0.00 -538.0.00 -284.0.00 -285.0.00 -366.0.00"/>
        <route edges="-373.0.00 -525.0.00 -507.0.00 -514.0.00 -515.0.00 -516.0.00 -517.0.00 -458.0.00 -459.0.00 -460.0.00 -340.0.00 -341.0.00 -342.0.00 -343.0.00 -304.0.00 -252.0.00 531.0.00 451.0.00 187.0.00 -391.0.00 -536.0.00 -537.0.00 -538.0.00 283.0.00 388.0.00 -154.0.00 -236.0.00 -386.0.00 -306.0.00 -387.0.00 522.0.00 297.0.00 392.0.00"/>
        <route edges="-433.0.00 328.0.00 241.0.00 -306.0.00 -387.0.00 522.0.00 521.0.00 520.0.00 519.0.00 518.0.00 517.0.00 516.0.00 532.0.00 379.0.00 277.0.00 373.0.00"/>
        <route edges="-492.0.00 -493.0.00 -494.0.00 -424.0.00 -425.0.00 -426.0.00 -427.0.00 -428.0.00 -429.0.00 -430.0.00 -431.0.00 -432.0.00"/>
        <route edges="8.0.00 -10.0.00 -222.0.00 287.0.00 286.0.00 285.0.00 284.0.00 538.0.00 246.0.00 -194.0.00 304.0.00 343.0.00 342.0.00 341.0.00 251.0.00 406.0.00 369.0.00 516.0.00 532.0.00 379.0.00 277.0.00 373.0.00"/>
        <route edges="464.0.00 419.0.00 418.0.00 417.0.00 275.0.00 233.0.00 232.0.00 231.0.00 230.0.00 6.0.00 317.0.00 307.0.00 248.0.00 252.0.00 304.0.00 343.0.00 342.0.00 341.0.00 251.0.00 406.0.00 369.0.00 516.0.00 532.0.00 293.0.00 332.0.00 318.0.00 -487.0.00 -488.0.00 -489.0.00"/>
        <route edges="291.0.00 290.0.00 289.0.00 288.0.00 287.0.00 286.0.00 285.0.00 284.0.00 538.0.00 246.0.00 -194.0.00 304.0.00 343.0.00 342.0.00 341.0.00 251.0.00 406.0.00 369.0.00 516.0.00 532.0.00 293.0.00 332.0.00 318.0.00 -487.0.00 -488.0.00 -489.0.00"/>
        <route edges="-433.0.00 328.0.00 241.0.00 -306.0.00 -387.0.00 522.0.00 521.0.00 520.0.00 519.0.00 -357.0.00 -435.0.00 -465.0.00 -460.0.00 -340.0.00 -341.0.00 -342.0.00 -343.0.00 -304.0.00 -252.0.00 531.0.00 451.0.00 187.0.00 -391.0.00 -536.0.00 -537.0.00 -538.0.00 -284.0.00 -285.0.00 -286.0.00 -287.0.00 -288.0.00 126.0.00 498.0.00 497.0.00 0.0.00 -253.0.00 -312.0.00"/>
        <route edges="305.0.00 -472.0.00 -310.0.00 -299.0.00 -325.0.00 -326.0.00 -38.0.00 -304.0.00 -252.0.00 -248.0.00 -307.0.00 -317.0.00 -6.0.00 -230.0.00 -238.0.00 -239.0.00 408.1.69 408.1.36 408.0.00"/>
        <route edges="223.7.86 223.7.36 223.0.00 -288.0.00 126.0.00 498.0.00 497.0.00 0.0.00 -253.0.00 -312.0.00"/>
        <route edges="-9.0.00 -10.0.00 -222.0.00 287.0.00 286.0.00 285.0.00 284.0.00 538.0.00 246.0.00 -194.0.00 304.0.00 343.0.00 342.0.00 341.0.00 340.0.00 339.0.00 338.0.00 337.0.00"/>
        <route edges="-227.0.00 -295.0.00 -296.0.00 -10.0.00 -222.0.00 -288.0.00 -289.0.00 -290.0.00 -291.0.00"/>
        <route edges="-373.0.00 -525.0.00 -507.0.00 -514.0.00 -515.0.00 -516.0.00 -517.0.00 -458.0.00 -459.0.00 -460.0.00 -340.0.00 -341.0.00 -342.0.00 -343.0.00 -304.0.00 -252.0.00 531.0.00 451.0.00 187.0.00 -391.0.00 -536.0.00 -537.0.00 -538.0.00 -539.0.00 -355.0.00"/>
        <route edges="464.0.00 419.0.00 380.0.00 491.0.00 -270.0.00 -263.0.00 -461.0.00 -529.0.00 -291.0.00"/>
        <route edges="366.0.00 -286.0.00 -287.0.00 222.0.00 10.0.00 296.0.00 295.0.00 -228.0.00"/>
        <route edges="-422.0.00 -445.0.00 -445.2.23 -448.0.00 -449.0.00 -420.0.00 -477.0.00 -478.0.00 -479.0.00 -480.0.00 385.0.00 245.0.00 416.0.00 315.0.00 273.0.00 484.0.00"/>
        <route edges="-392.0.00 -377.0.00 -521.0.00 -522.0.00 500.0.00 306.0.00 386.0.00 236.0.00 154.0.00 -344.0.00 -282.0.00 -283.0.00 -284.0.00 -285.0.00 365.0.00 364.0.00 171.0.00 381.0.00 319.0.00 -230.0.00 -231.0.00 -232.0.00 -233.0.00 -275.0.00 -417.0.00 -418.0.00 -419.0.00 -464.0.00"/>
        <route edges="355.0.00 354.0.00 -285.0.00 -286.0.00 -287.0.00 222.0.00 10.0.00 296.0.00 295.0.00 227.0.00"/>
        <route edges="-492.0.00 -346.0.00 -347.0.00 -348.0.00 -349.0.00 -350.0.00 -351.0.00 -352.0.00 -353.0.00 284.0.00 283.0.00 388.0.00 -154.0.00 -368.0.00 -185.0.00 -356.0.00"/>
        <route edges="-492.0.00 -346.0.00 -347.0.00 -348.0.00 -349.0.00 -350.0.00 -351.0.00 -352.0.00 -534.0.00 -535.0.00 -536.0.00 90.0.00 -268.0.00 -334.0.00 -194.0.00 304.0.00 533.0.00 310.0.00 472.0.00 -305.0.00"/>
        <route edges="489.0.00 488.0.00 272.0.00 -515.0.00 -516.0.00 -517.0.00 -518.0.00 -519.0.00 -520.0.00 -521.0.00 -522.0.00 500.0.00 306.0.00 386.0.00 -276.0.00 303.0.00 433.0.00"/>
        <route edges="-433.0.00 328.0.00 241.0.00 -306.0.00 -387.0.00 522.0.00 521.0.00 520.0.00 519.0.00 518.0.00 517.0.00 516.0.00 515.0.00 514.0.00 513.0.00 512.0.00 511.0.00 510.0.00 483.0.00 482.0.00 481.0.00 480.0.00 479.0.00 478.0.00 477.0.00 420.0.00 449.0.00 448.0.00 445.2.23 445.0.00 422.0.00"/>
        <route edges="-408.0.00 -408.1.36 -408.1.69 -411.0.00 -412.0.00 -413.0.00 -414.0.00 -393.0.00 286.0.00 285.0.00 284.0.00 283.0.00 282.0.00 281.0.00 280.0.00 -4.0.00 -4.290.90 -4.291.06"/>
        <route edges="355.0.00 354.0.00 353.0.00 352.0.00 351.0.00 350.0.00 349.0.00 348.0.00 347.0.00 346.0.00 492.0.00"/>
        <route edges="223.7.86 223.7.36 223.0.00 287.0.00 286.0.00 365.0.00 364.0.00 171.0.00 381.0.00 319.0.00 -230.0.00 -238.0.00 -524.0.00 -414.0.00 -393.0.00 -287.0.00 -223.0.00 -223.7.36 -223.7.86"/>
        <route edges="8.0.00 -10.0.00 -222.0.00 287.0.00 286.0.00 285.0.00 284.0.00 538.0.00 246.0.00 -194.0.00 304.0.00 533.0.00 310.0.00 472.0.00 -305.0.00"/>
        <route edges="-392.0.00 -377.0.00 -521.0.00 -522.0.00 500.0.00 306.0.00 386.0.00 236.0.00 154.0.00 -344.0.00 -282.0.00 -283.0.00 538.0.00 246.0.00 -194.0.00 304.0.00 343.0.00 342.0.00 341.0.00 340.0.00 339.0.00 338.0.00 337.0.00"/>
        <route edges="-492.0.00 -493.0.00 -361.0.00 -362.0.00 -363.0.00 -364.0.00 -365.0.00 -286.0.00 -394.0.00"/>
        <route edges="312.0.00 -378.0.00 -372.0.00 -476.0.00 288.0.00 222.0.00 10.0.00 296.0.00 295.0.00 -228.0.00"/>
        <route edges="8.0.00 296.0.00 295.0.00 468.0.00 450.0.00 495.0.00 494.0.00 493.0.00 492.0.00"/>
        <route edges="305.0.00 -472.0.00 -473.0.00 351.0.00 350.0.00 349.0.00 348.0.00 347.0.00 346.0.00 -493.0.00 -494.0.00 -495.0.00 -450.0.00 -468.0.00 -228.0.00"/>
        <route edges="-227.0.00 -295.0.00 -296.0.00 -10.0.00 -222.0.00 287.0.00 -394.0.00"/>
        <route edges="355.0.00 539.0.00 538.0.00 246.0.00 -194.0.00 304.0.00 343.0.00 342.0.00 341.0.00 251.0.00 406.0.00 369.0.00 516.0.00 532.0.00 379.0.00 277.0.00 373.0.00"/>
        <route edges="291.0.00 290.0.00 289.0.00 288.0.00 287.0.00 286.0.00 285.0.00 284.0.00 538.0.00 246.0.00 -194.0.00 304.0.00 533.0.00 310.0.00 472.0.00 -305.0.00"/>